7
Coordinates from ORCA-job input E -227.136916107458
  O       1.437640     -0.738140      0.232040
  O       0.794950      1.419990      0.062290
  C      -0.986070     -0.090640     -0.085390
  C       0.456330      0.210150      0.073960
  H      -1.254490     -1.121660      0.140550
  H      -1.319750      0.236660     -1.098530
  H      -1.532920      0.573930      0.637230
7
Coordinates from ORCA-job input E -227.161332130604
  O       1.322283     -0.712395      0.216112
  O       0.815097      1.413291      0.056068
  C      -0.975200     -0.083880     -0.074737
  C       0.482118      0.227666      0.081578
  H      -1.225114     -1.122594      0.130930
  H      -1.298919      0.216946     -1.072610
  H      -1.524575      0.551256      0.624808
7
Coordinates from ORCA-job input E -227.163817938664
  O       1.265396     -0.713599      0.212515
  O       0.828781      1.426279      0.056832
  C      -0.971978     -0.077554     -0.066059
  C       0.510981      0.232715      0.077319
  H      -1.203728     -1.124472      0.121992
  H      -1.298160      0.200280     -1.069982
  H      -1.535602      0.546640      0.629533
7
Coordinates from ORCA-job input E -227.163838169499
  O       1.281046     -0.725256      0.198345
  O       0.830045      1.428953      0.032826
  C      -0.976632     -0.073018     -0.057935
  C       0.511162      0.235465      0.112040
  H      -1.205387     -1.123558      0.114998
  H      -1.286715      0.204007     -1.068247
  H      -1.557829      0.543696      0.630123
7
Coordinates from ORCA-job input E -227.163324342150
  O       1.303451     -0.735356      0.226583
  O       0.827255      1.433131      0.059128
  C      -0.982033     -0.068597     -0.064300
  C       0.517413      0.233071      0.064434
  H      -1.204472     -1.120115      0.114188
  H      -1.314851      0.198122     -1.070856
  H      -1.551074      0.550034      0.632972
7
Coordinates from ORCA-job input E -227.164475742436
  O       1.282919     -0.723210      0.212708
  O       0.832324      1.428021      0.050563
  C      -0.978302     -0.071056     -0.061442
  C       0.514892      0.233509      0.083078
  H      -1.202398     -1.122429      0.115429
  H      -1.301672      0.198287     -1.070459
  H      -1.552073      0.547170      0.632273
7
Coordinates from ORCA-job input E -227.164485138922
  O       1.283359     -0.724834      0.210454
  O       0.832537      1.428645      0.049309
  C      -0.978721     -0.070032     -0.060355
  C       0.514975      0.233893      0.085974
  H      -1.201705     -1.121964      0.115091
  H      -1.300249      0.197390     -1.070289
  H      -1.554505      0.547192      0.631965
7
Coordinates from ORCA-job input E -227.164486038717
  O       1.283126     -0.724882      0.209425
  O       0.832749      1.428582      0.050442
  C      -0.978780     -0.069690     -0.060152
  C       0.514985      0.233923      0.085739
  H      -1.201309     -1.121702      0.115630
  H      -1.300084      0.196333     -1.070602
  H      -1.554998      0.547724      0.631668
7
Coordinates from ORCA-job input E -227.164487144829
  O       1.282869     -0.725152      0.205803
  O       0.833131      1.428628      0.053888
  C      -0.978916     -0.069008     -0.059679
  C       0.514904      0.234079      0.085624
  H      -1.200729     -1.120973      0.117682
  H      -1.299360      0.193335     -1.071442
  H      -1.556209      0.549381      0.630274
