4
Coordinates from ORCA-job input E -188.114424581911
  O       0.806810     -0.363040      0.331190
  O      -0.593750      1.154040     -0.612010
  C      -0.463280      0.005210     -0.089520
  H      -1.334690     -0.641770      0.009920
4
Coordinates from ORCA-job input E -188.146256460040
  O       0.715766     -0.369946      0.315456
  O      -0.602724      1.129372     -0.603158
  C      -0.416735      0.030098     -0.090854
  H      -1.281217     -0.635084      0.018135
4
Coordinates from ORCA-job input E -188.149184673835
  O       0.668876     -0.388031      0.313470
  O      -0.619291      1.134053     -0.608715
  C      -0.381231      0.047327     -0.090600
  H      -1.253264     -0.638908      0.025425
4
Coordinates from ORCA-job input E -188.150046138598
  O       0.689320     -0.392913      0.319827
  O      -0.624138      1.137414     -0.611128
  C      -0.386146      0.047803     -0.091927
  H      -1.263946     -0.637864      0.022808
4
Coordinates from ORCA-job input E -188.150065636216
  O       0.687576     -0.391474      0.318785
  O      -0.623004      1.136502     -0.610562
  C      -0.385460      0.047608     -0.091520
  H      -1.264022     -0.638195      0.022876
4
Coordinates from ORCA-job input E -188.150065865233
  O       0.687514     -0.391335      0.318860
  O      -0.623103      1.136407     -0.610394
  C      -0.385134      0.047403     -0.091800
  H      -1.264186     -0.638035      0.022914
