8
Coordinates from ORCA-job input E -227.624932737576
  O       1.437640     -0.738140      0.232040
  O       0.794950      1.419990      0.062290
  C      -0.986070     -0.090640     -0.085390
  C       0.456330      0.210150      0.073960
  H       2.404320     -0.490280      0.037870
  H      -1.254490     -1.121660      0.140550
  H      -1.319750      0.236660     -1.098530
  H      -1.532920      0.573930      0.637230
8
Coordinates from ORCA-job input E -227.648521880503
  O       1.356320     -0.724836      0.202989
  O       0.845770      1.398389      0.056849
  C      -0.959191     -0.086620     -0.074423
  C       0.482038      0.251397      0.067260
  H       2.255007     -0.464762      0.055160
  H      -1.194219     -1.127658      0.133297
  H      -1.283049      0.210954     -1.070766
  H      -1.502666      0.543147      0.629654
8
Coordinates from ORCA-job input E -227.652194781832
  O       1.304565     -0.738885      0.147003
  O       0.881397      1.403672      0.036710
  C      -0.952359     -0.080787     -0.063062
  C       0.494781      0.280348      0.050296
  H       2.211245     -0.456590      0.117246
  H      -1.149955     -1.132654      0.122960
  H      -1.285813      0.197784     -1.060239
  H      -1.503852      0.527122      0.649106
8
Coordinates from ORCA-job input E -227.652695076949
  O       1.297306     -0.748386      0.114235
  O       0.897289      1.413024      0.030110
  C      -0.954702     -0.076138     -0.059396
  C       0.497878      0.290523      0.030441
  H       2.204423     -0.460411      0.161351
  H      -1.129795     -1.132975      0.118204
  H      -1.303809      0.192003     -1.056730
  H      -1.508580      0.522369      0.661805
8
Coordinates from ORCA-job input E -227.652649458112
  O       1.297283     -0.750653      0.104627
  O       0.903442      1.412501      0.029900
  C      -0.956725     -0.073116     -0.055845
  C       0.495364      0.293032      0.050711
  H       2.205355     -0.461247      0.152734
  H      -1.124502     -1.131079      0.121847
  H      -1.296848      0.185281     -1.060094
  H      -1.523359      0.525291      0.656141
8
Coordinates from ORCA-job input E -227.652769257240
  O       1.298090     -0.750072      0.107050
  O       0.903139      1.410641      0.038276
  C      -0.956854     -0.072634     -0.058006
  C       0.495366      0.291701      0.038726
  H       2.205794     -0.460190      0.154798
  H      -1.123300     -1.130270      0.123636
  H      -1.303331      0.183439     -1.060353
  H      -1.518895      0.527394      0.655892
8
Coordinates from ORCA-job input E -227.652781080039
  O       1.297096     -0.750287      0.104050
  O       0.903964      1.410867      0.046421
  C      -0.956571     -0.071940     -0.058059
  C       0.494986      0.292266      0.040035
  H       2.204174     -0.460436      0.149841
  H      -1.121418     -1.129079      0.128447
  H      -1.301602      0.177787     -1.062256
  H      -1.520620      0.530832      0.651541
8
Coordinates from ORCA-job input E -227.652817522174
  O       1.294539     -0.750934      0.086262
  O       0.906183      1.410792      0.084162
  C      -0.956155     -0.069403     -0.057545
  C       0.493417      0.294006      0.048470
  H       2.200944     -0.460778      0.127567
  H      -1.117360     -1.122996      0.152052
  H      -1.291640      0.151379     -1.071336
  H      -1.529918      0.547945      0.630387
8
Coordinates from ORCA-job input E -227.652898616998
  O       1.291197     -0.750124      0.040216
  O       0.908315      1.407463      0.170736
  C      -0.955634     -0.064983     -0.055646
  C       0.490751      0.296379      0.068872
  H       2.196180     -0.459303      0.078493
  H      -1.116299     -1.107059      0.207357
  H      -1.265136      0.090366     -1.089426
  H      -1.549362      0.587272      0.579417
8
Coordinates from ORCA-job input E -227.653006739896
  O       1.288827     -0.746112     -0.008194
  O       0.909064      1.399311      0.255681
  C      -0.955393     -0.061301     -0.053526
  C       0.488637      0.297084      0.089288
  H       2.192906     -0.454838      0.031592
  H      -1.121573     -1.088354      0.261714
  H      -1.236783      0.029519     -1.102989
  H      -1.565676      0.624703      0.526453
8
Coordinates from ORCA-job input E -227.653147007015
  O       1.288193     -0.738477     -0.058400
  O       0.907601      1.387070      0.337508
  C      -0.955506     -0.059116     -0.049630
  C       0.487535      0.294852      0.113808
  H       2.192356     -0.446989     -0.016599
  H      -1.136905     -1.067334      0.314908
  H      -1.203566     -0.030768     -1.111932
  H      -1.579698      0.660770      0.470357
8
Coordinates from ORCA-job input E -227.653263090874
  O       1.288325     -0.726883     -0.111056
  O       0.905089      1.369899      0.417477
  C      -0.955959     -0.057417     -0.046290
  C       0.486851      0.291466      0.133266
  H       2.193433     -0.437137     -0.057949
  H      -1.156111     -1.043917      0.365901
  H      -1.173312     -0.090552     -1.115855
  H      -1.588306      0.694551      0.414525
8
Coordinates from ORCA-job input E -227.653367058786
  O       1.291827     -0.714683     -0.152076
  O       0.898968      1.357512      0.466464
  C      -0.957092     -0.058301     -0.043828
  C       0.487750      0.288645      0.140833
  H       2.199441     -0.432652     -0.075253
  H      -1.176268     -1.027969      0.398423
  H      -1.155962     -0.128262     -1.115900
  H      -1.588655      0.715721      0.381356
8
Coordinates from ORCA-job input E -227.653464371910
  O       1.289541     -0.697336     -0.203102
  O       0.899669      1.330821      0.546523
  C      -0.957124     -0.054481     -0.047797
  C       0.485557      0.289762      0.144686
  H       2.196241     -0.423942     -0.100476
  H      -1.182635     -0.998990      0.445129
  H      -1.141663     -0.188029     -1.115027
  H      -1.589577      0.742204      0.330084
8
Coordinates from ORCA-job input E -227.653150496032
  O       1.301394     -0.700893     -0.183348
  O       0.885209      1.358394      0.468595
  C      -0.959287     -0.060989     -0.056346
  C       0.489099      0.299513      0.098812
  H       2.208416     -0.453028     -0.018620
  H      -1.169198     -1.025620      0.403968
  H      -1.187599     -0.129706     -1.119564
  H      -1.568024      0.712339      0.406523
8
Coordinates from ORCA-job input E -227.653497836621
  O       1.292812     -0.697587     -0.199888
  O       0.895129      1.338802      0.526775
  C      -0.957945     -0.055979     -0.050973
  C       0.486617      0.292274      0.133926
  H       2.200437     -0.433276     -0.078574
  H      -1.178543     -1.005009      0.435658
  H      -1.153828     -0.173779     -1.117721
  H      -1.584669      0.734565      0.350818
8
Coordinates from ORCA-job input E -227.653523090982
  O       1.292022     -0.677180     -0.249917
  O       0.893631      1.308836      0.605382
  C      -0.958009     -0.053250     -0.053848
  C       0.485585      0.289376      0.146716
  H       2.199913     -0.422310     -0.111696
  H      -1.193095     -0.972235      0.482742
  H      -1.134309     -0.234143     -1.114642
  H      -1.585728      0.760916      0.295281
8
Coordinates from ORCA-job input E -227.653527477826
  O       1.292813     -0.675082     -0.254461
  O       0.893088      1.305036      0.613023
  C      -0.958033     -0.052971     -0.055641
  C       0.485704      0.288664      0.146816
  H       2.200510     -0.420935     -0.113320
  H      -1.193549     -0.967985      0.487770
  H      -1.135429     -0.239609     -1.114930
  H      -1.585095      0.762892      0.290764
8
Coordinates from ORCA-job input E -227.653529049856
  O       1.293659     -0.673131     -0.258907
  O       0.892376      1.301799      0.619539
  C      -0.957953     -0.052810     -0.057176
  C       0.486046      0.287817      0.147113
  H       2.201067     -0.419750     -0.114409
  H      -1.194200     -0.964186      0.492269
  H      -1.136578     -0.244335     -1.115264
  H      -1.584407      0.764606      0.286855
8
Coordinates from ORCA-job input E -227.653529070010
  O       1.293728     -0.673009     -0.259283
  O       0.892337      1.301556      0.620004
  C      -0.957928     -0.052799     -0.057200
  C       0.486080      0.287720      0.147190
  H       2.201119     -0.419596     -0.114516
  H      -1.194341     -0.963955      0.492554
  H      -1.136624     -0.244688     -1.115200
  H      -1.584362      0.764780      0.286471
